Metadata-Version: 2.4
Name: vorflow
Version: 0.0.1
Summary: Voronoi mesh generation for MODFLOW 6 using Gmsh and Geopandas
Author-email: Your Name <you@example.com>
Requires-Python: >=3.9
Requires-Dist: numpy
Requires-Dist: pandas
Requires-Dist: geopandas
Requires-Dist: shapely
Requires-Dist: scipy
Requires-Dist: gmsh
Requires-Dist: matplotlib
Provides-Extra: dev
Requires-Dist: pytest; extra == "dev"
Requires-Dist: pytest-cov; extra == "dev"
Requires-Dist: black; extra == "dev"
Requires-Dist: jupyter; extra == "dev"
